<additional>
    <vType id="ambulance" vClass="emergency" color="red" guiShape="emergency" speedFactor="1.5" />
</additional>
