<?xml version="1.0" encoding="UTF-8"?>

<!-- generated on 2025-09-30 10:01:19 by Eclipse SUMO netconvert Version 1.24.0
<netconvertConfiguration xmlns:xsi="http://www.w3.org/2001/XMLSchema-instance" xsi:noNamespaceSchemaLocation="http://sumo.dlr.de/xsd/netconvertConfiguration.xsd">

    <input>
        <osm-files value="map.osm"/>
    </input>

    <output>
        <output-file value="map.net.xml"/>
    </output>

    <projection>
        <proj.utm value="true"/>
    </projection>

</netconvertConfiguration>
-->

<net version="1.20" junctionCornerDetail="5" limitTurnSpeed="5.50" xmlns:xsi="http://www.w3.org/2001/XMLSchema-instance" xsi:noNamespaceSchemaLocation="http://sumo.dlr.de/xsd/net_file.xsd">

    <location netOffset="-531640.86,-4555195.87" convBoundary="0.00,0.00,432.19,445.07" origBoundary="-8.622926,41.147458,-8.617771,41.151469" projParameter="+proj=utm +zone=29 +ellps=WGS84 +datum=WGS84 +units=m +no_defs"/>

    <type id="highway.footway" priority="1" numLanes="1" speed="2.78" allow="pedestrian" oneway="1" width="2.00"/>
    <type id="highway.pedestrian" priority="1" numLanes="1" speed="2.78" allow="pedestrian" oneway="1" width="2.00"/>
    <type id="highway.residential" priority="3" numLanes="1" speed="13.89" disallow="tram rail_urban rail rail_electric rail_fast ship container cable_car subway aircraft wheelchair scooter drone" oneway="0"/>
    <type id="highway.service" priority="1" numLanes="1" speed="5.56" allow="pedestrian delivery bicycle" oneway="0"/>
    <type id="highway.tertiary" priority="10" numLanes="1" speed="22.22" disallow="tram rail_urban rail rail_electric rail_fast ship container cable_car subway aircraft wheelchair scooter drone" oneway="0"/>

    <edge id=":10761260764_0" function="internal">
        <lane id=":10761260764_0_0" index="0" disallow="tram rail_urban rail rail_electric rail_fast ship container cable_car subway aircraft wheelchair scooter drone" speed="22.22" length="4.36" shape="175.01,233.26 174.33,237.56"/>
    </edge>
    <edge id=":10761260764_1" function="internal">
        <lane id=":10761260764_1_0" index="0" disallow="tram rail_urban rail rail_electric rail_fast ship container cable_car subway aircraft wheelchair scooter drone" speed="22.22" length="4.36" shape="171.17,237.06 171.85,232.75"/>
    </edge>
    <edge id=":10893856743_0" function="internal">
        <lane id=":10893856743_0_0" index="0" disallow="tram rail_urban rail rail_electric rail_fast ship container cable_car subway aircraft wheelchair scooter drone" speed="22.22" length="0.30" shape="154.80,349.30 154.76,349.60"/>
    </edge>
    <edge id=":12106039016_0" function="internal">
        <lane id=":12106039016_0_0" index="0" disallow="tram rail_urban rail rail_electric rail_fast ship container cable_car subway aircraft wheelchair scooter drone" speed="13.89" length="0.30" shape="184.39,244.75 184.10,244.70"/>
    </edge>
    <edge id=":12106039017_0" function="internal">
        <lane id=":12106039017_0_0" index="0" disallow="tram rail_urban rail rail_electric rail_fast ship container cable_car subway aircraft wheelchair scooter drone" speed="13.89" length="0.30" shape="160.08,240.31 160.38,240.36"/>
    </edge>
    <edge id=":12106039018_0" function="internal">
        <lane id=":12106039018_0_0" index="0" disallow="tram rail_urban rail rail_electric rail_fast ship container cable_car subway aircraft wheelchair scooter drone" speed="13.89" length="0.10" shape="163.22,240.88 163.22,240.88"/>
    </edge>
    <edge id=":12106039019_0" function="internal">
        <lane id=":12106039019_0_0" index="0" disallow="tram rail_urban rail rail_electric rail_fast ship container cable_car subway aircraft wheelchair scooter drone" speed="13.89" length="0.30" shape="180.07,243.96 179.77,243.90"/>
    </edge>
    <edge id=":12106039020_0" function="internal">
        <lane id=":12106039020_0_0" index="0" disallow="tram rail_urban rail rail_electric rail_fast ship container cable_car subway aircraft wheelchair scooter drone" speed="22.22" length="0.10" shape="175.35,231.16 175.35,231.16"/>
    </edge>
    <edge id=":12106039020_1" function="internal">
        <lane id=":12106039020_1_0" index="0" disallow="tram rail_urban rail rail_electric rail_fast ship container cable_car subway aircraft wheelchair scooter drone" speed="22.22" length="0.10" shape="172.19,230.66 172.19,230.66"/>
    </edge>
    <edge id=":12610270516_0" function="internal">
        <lane id=":12610270516_0_0" index="0" disallow="tram rail_urban rail rail_electric rail_fast ship container cable_car subway aircraft wheelchair scooter drone" speed="22.22" length="0.30" shape="154.09,353.62 154.04,353.91"/>
    </edge>
    <edge id=":2414401915_0" function="internal">
        <lane id=":2414401915_0_0" index="0" disallow="tram rail_urban rail rail_electric rail_fast ship container cable_car subway aircraft wheelchair scooter drone" speed="3.65" length="4.67" shape="186.83,138.62 187.80,137.56 188.66,137.29 189.38,137.81 189.99,139.12"/>
    </edge>
    <edge id=":25632230_0" function="internal">
        <lane id=":25632230_0_0" index="0" disallow="tram rail_urban rail rail_electric rail_fast ship container cable_car subway aircraft wheelchair scooter drone" speed="6.86" length="10.29" shape="178.98,243.76 175.84,243.54 173.46,244.18 171.86,245.68 171.02,248.03"/>
    </edge>
    <edge id=":25632230_1" function="internal">
        <lane id=":25632230_1_0" index="0" disallow="tram rail_urban rail rail_electric rail_fast ship container cable_car subway aircraft wheelchair scooter drone" speed="7.27" length="11.32" shape="178.98,243.76 175.25,242.76 172.70,241.35 171.33,239.51 171.14,237.26"/>
    </edge>
    <edge id=":25632230_2" function="internal">
        <lane id=":25632230_2_0" index="0" disallow="tram rail_urban rail rail_electric rail_fast ship container cable_car subway aircraft wheelchair scooter drone" speed="22.22" length="10.82" shape="174.30,237.76 173.57,240.75 172.67,242.89 171.76,245.04 171.02,248.03"/>
    </edge>
    <edge id=":25632230_3" function="internal">
        <lane id=":25632230_3_0" index="0" disallow="tram rail_urban rail rail_electric rail_fast ship container cable_car subway aircraft wheelchair scooter drone" speed="3.65" length="4.67" shape="174.30,237.76 173.32,238.82 172.47,239.09 171.74,238.57 171.14,237.26"/>
    </edge>
    <edge id=":25632230_4" function="internal">
        <lane id=":25632230_4_0" index="0" disallow="tram rail_urban rail rail_electric rail_fast ship container cable_car subway aircraft wheelchair scooter drone" speed="6.29" length="8.52" shape="164.81,241.17 167.28,241.31 169.16,240.70 170.45,239.35 171.14,237.26"/>
    </edge>
    <edge id=":25632230_5" function="internal">
        <lane id=":25632230_5_0" index="0" disallow="tram rail_urban rail rail_electric rail_fast ship container cable_car subway aircraft wheelchair scooter drone" speed="7.00" length="10.46" shape="164.81,241.17 167.87,242.09 169.92,243.54 170.97,245.52 171.02,248.03"/>
    </edge>
    <edge id=":2914925354_0" function="internal">
        <lane id=":2914925354_0_0" index="0" allow="pedestrian delivery bicycle" speed="5.56" length="0.31" shape="158.91,281.46 158.60,281.41"/>
    </edge>
    <edge id=":2914925354_1" function="internal">
        <lane id=":2914925354_1_0" index="0" allow="pedestrian delivery bicycle" speed="5.56" length="0.25" shape="159.17,278.26 159.42,278.31"/>
    </edge>
    <edge id=":2914925360_0" function="internal">
        <lane id=":2914925360_0_0" index="0" allow="pedestrian delivery bicycle" speed="5.56" length="4.16" shape="141.53,281.81 140.64,282.40 139.70,282.76 138.69,282.91 137.63,282.82"/>
    </edge>
    <edge id=":2914925360_1" function="internal">
        <lane id=":2914925360_1_0" index="0" allow="pedestrian delivery bicycle" speed="4.13" length="1.39" shape="138.19,279.67 138.55,279.70 138.88,279.65 139.20,279.53 139.49,279.33"/>
    </edge>
    <edge id=":2914925362_0" function="internal">
        <lane id=":2914925362_0_0" index="0" allow="pedestrian delivery bicycle" speed="3.65" length="4.67" shape="99.39,275.96 98.35,274.96 98.10,274.10 98.63,273.39 99.96,272.81"/>
    </edge>
    <edge id=":2914925366_0" function="internal">
        <lane id=":2914925366_0_0" index="0" disallow="tram rail_urban rail rail_electric rail_fast ship container cable_car subway aircraft wheelchair scooter drone" speed="22.22" length="9.39" shape="166.41,276.29 164.92,285.57"/>
    </edge>
    <edge id=":2914925366_1" function="internal">
        <lane id=":2914925366_1_0" index="0" allow="pedestrian delivery bicycle" speed="6.09" length="7.76" shape="166.41,276.29 165.78,278.98 164.89,280.83 163.75,281.84 162.35,282.02"/>
    </edge>
    <edge id=":2914925366_2" function="internal">
        <lane id=":2914925366_2_0" index="0" allow="pedestrian delivery bicycle" speed="6.09" length="7.75" shape="162.85,278.86 164.13,279.46 164.90,280.78 165.16,282.82 164.92,285.57"/>
    </edge>
    <edge id=":2914925366_3" function="internal">
        <lane id=":2914925366_3_0" index="0" allow="pedestrian delivery bicycle" speed="3.65" length="4.67" shape="162.85,278.86 163.91,279.84 164.18,280.69 163.66,281.42 162.35,282.02"/>
    </edge>

    <edge id="-1206667334#0" from="10761260764" to="25632230" priority="10" type="highway.tertiary">
        <lane id="-1206667334#0_0" index="0" disallow="tram rail_urban rail rail_electric rail_fast ship container cable_car subway aircraft wheelchair scooter drone" speed="22.22" length="0.20" shape="174.33,237.56 174.30,237.76"/>
    </edge>
    <edge id="-1206667334#1" from="12106039020" to="10761260764" priority="10" type="highway.tertiary">
        <lane id="-1206667334#1_0" index="0" disallow="tram rail_urban rail rail_electric rail_fast ship container cable_car subway aircraft wheelchair scooter drone" speed="22.22" length="2.12" shape="175.35,231.16 175.01,233.26"/>
    </edge>
    <edge id="-1206667334#2" from="2414401915" to="12106039020" priority="10" type="highway.tertiary">
        <lane id="-1206667334#2_0" index="0" disallow="tram rail_urban rail rail_electric rail_fast ship container cable_car subway aircraft wheelchair scooter drone" speed="22.22" length="93.20" shape="189.99,139.12 175.35,231.16"/>
    </edge>
    <edge id="-287933160" from="2914925366" to="2914925354" priority="1" type="highway.service" shape="165.66,280.92 162.85,280.48 159.03,279.86">
        <lane id="-287933160_0" index="0" allow="pedestrian delivery bicycle" speed="5.56" length="3.48" shape="162.35,282.02 158.91,281.46"/>
    </edge>
    <edge id="-287933164" from="2914925354" to="2914925360" priority="1" type="highway.service" shape="159.03,279.86 144.56,277.24 139.37,281.51">
        <lane id="-287933164_0" index="0" allow="pedestrian delivery bicycle" speed="5.56" length="18.33" shape="158.60,281.41 145.01,278.94 141.53,281.81"/>
    </edge>
    <edge id="-287933167" from="2914925360" to="2914925362" priority="1" type="highway.service">
        <lane id="-287933167_0" index="0" allow="pedestrian delivery bicycle" speed="5.56" length="38.85" shape="137.63,282.82 99.39,275.96"/>
    </edge>
    <edge id="1032038604#0" from="25632229" to="12106039017" priority="3" type="highway.residential" spreadType="center" shape="0.00,211.12 5.57,212.13 160.23,240.34">
        <lane id="1032038604#0_0" index="0" disallow="tram rail_urban rail rail_electric rail_fast ship container cable_car subway aircraft wheelchair scooter drone" speed="13.89" length="162.72" shape="0.00,211.12 5.57,212.13 160.08,240.31"/>
    </edge>
    <edge id="1032038604#1" from="12106039017" to="12106039018" priority="3" type="highway.residential" spreadType="center">
        <lane id="1032038604#1_0" index="0" disallow="tram rail_urban rail rail_electric rail_fast ship container cable_car subway aircraft wheelchair scooter drone" speed="13.89" length="2.88" shape="160.38,240.36 163.22,240.88"/>
    </edge>
    <edge id="1032038604#2" from="12106039018" to="25632230" priority="3" type="highway.residential" spreadType="center">
        <lane id="1032038604#2_0" index="0" disallow="tram rail_urban rail rail_electric rail_fast ship container cable_car subway aircraft wheelchair scooter drone" speed="13.89" length="1.62" shape="163.22,240.88 164.81,241.17"/>
    </edge>
    <edge id="1157194542" from="10761260746" to="10761260754" priority="1" type="highway.footway" spreadType="center" shape="23.79,41.57 87.19,21.41 146.33,10.23 203.69,0.00 206.33,4.43 199.73,39.10 186.58,125.34 185.30,133.73 173.96,202.33 168.60,234.77">
        <lane id="1157194542_0" index="0" allow="pedestrian" speed="2.78" length="422.56" width="2.00" shape="23.79,41.57 87.19,21.41 146.33,10.23 203.69,0.00 206.33,4.43 199.73,39.10 186.58,125.34 185.30,133.73 173.96,202.33 168.76,233.77"/>
    </edge>
    <edge id="1157194543#0" from="10761260754" to="10761260764" priority="1" type="highway.footway" spreadType="center" shape="168.60,234.77 170.45,235.06 173.04,235.47">
        <lane id="1157194543#0_0" index="0" allow="pedestrian" speed="2.78" length="0.20" width="2.00" shape="168.89,234.81 169.09,234.84"/>
    </edge>
    <edge id="1157194543#1" from="10761260764" to="10761260755" priority="1" type="highway.footway" spreadType="center">
        <lane id="1157194543#1_0" index="0" allow="pedestrian" speed="2.78" length="0.20" width="2.00" shape="176.83,236.08 177.03,236.11"/>
    </edge>
    <edge id="1206667334#0" from="25632230" to="10761260764" priority="10" type="highway.tertiary">
        <lane id="1206667334#0_0" index="0" disallow="tram rail_urban rail rail_electric rail_fast ship container cable_car subway aircraft wheelchair scooter drone" speed="22.22" length="0.20" shape="171.14,237.26 171.17,237.06"/>
    </edge>
    <edge id="1206667334#1" from="10761260764" to="12106039020" priority="10" type="highway.tertiary">
        <lane id="1206667334#1_0" index="0" disallow="tram rail_urban rail rail_electric rail_fast ship container cable_car subway aircraft wheelchair scooter drone" speed="22.22" length="2.12" shape="171.85,232.75 172.19,230.66"/>
    </edge>
    <edge id="1206667334#2" from="12106039020" to="2414401915" priority="10" type="highway.tertiary">
        <lane id="1206667334#2_0" index="0" disallow="tram rail_urban rail rail_electric rail_fast ship container cable_car subway aircraft wheelchair scooter drone" speed="22.22" length="93.20" shape="172.19,230.66 186.83,138.62"/>
    </edge>
    <edge id="233097110#0" from="2414393100" to="2198259543" priority="1" type="highway.pedestrian" spreadType="center" shape="208.12,229.73 210.33,230.10 211.08,225.36 214.39,225.85">
        <lane id="233097110#0_0" index="0" allow="pedestrian" speed="2.78" length="8.35" width="2.00" shape="209.12,229.90 210.33,230.10 211.08,225.36 213.38,225.70"/>
    </edge>
    <edge id="233097110#1" from="2198259543" to="2414393100" priority="1" type="highway.pedestrian" spreadType="center" shape="214.39,225.85 214.64,223.84 209.31,223.10 208.12,229.73">
        <lane id="233097110#1_0" index="0" allow="pedestrian" speed="2.78" length="12.10" width="2.00" shape="214.52,224.83 214.64,223.84 209.31,223.10 208.30,228.73"/>
    </edge>
    <edge id="233097112#0" from="2198259557" to="2198259561" priority="1" type="highway.pedestrian" spreadType="center" shape="191.75,229.82 191.99,227.88 187.06,231.62 187.75,231.85">
        <lane id="233097112#0_0" index="0" allow="pedestrian" speed="2.78" length="2.10" width="2.00" shape="190.45,229.05 188.78,230.32"/>
    </edge>
    <edge id="233097112#1" from="2198259561" to="2198259557" priority="1" type="highway.pedestrian" spreadType="center" shape="187.75,231.85 188.20,232.36 191.75,229.82">
        <lane id="233097112#1_0" index="0" allow="pedestrian" speed="2.78" length="5.49" width="2.00" shape="187.75,231.85 188.20,232.36 192.11,229.56"/>
    </edge>
    <edge id="233228755#0" from="2415834595" to="2415834592" priority="1" type="highway.pedestrian" spreadType="center" shape="139.30,226.12 144.08,226.93 145.01,221.55">
        <lane id="233228755#0_0" index="0" allow="pedestrian" speed="2.78" length="8.30" width="2.00" shape="140.29,226.29 144.08,226.93 144.84,222.54"/>
    </edge>
    <edge id="233228755#1" from="2415834592" to="2415834595" priority="1" type="highway.pedestrian" spreadType="center" shape="145.01,221.55 140.23,220.74 139.30,226.12">
        <lane id="233228755#1_0" index="0" allow="pedestrian" speed="2.78" length="8.30" width="2.00" shape="144.02,221.38 140.23,220.74 139.47,225.13"/>
    </edge>
    <edge id="265390429#0" from="2710629432" to="2710629434" priority="1" type="highway.pedestrian" spreadType="center" shape="142.35,265.65 132.27,263.88 133.66,256.54">
        <lane id="265390429#0_0" index="0" allow="pedestrian" speed="2.78" length="15.74" width="2.00" shape="141.38,265.48 132.27,263.88 133.48,257.51"/>
    </edge>
    <edge id="265390429#1" from="2710629434" to="2710629432" priority="1" type="highway.pedestrian" spreadType="center" shape="133.66,256.54 143.77,258.33 142.35,265.65">
        <lane id="265390429#1_0" index="0" allow="pedestrian" speed="2.78" length="15.76" width="2.00" shape="134.63,256.71 143.77,258.33 142.54,264.68"/>
    </edge>
    <edge id="287933160" from="2914925354" to="2914925366" priority="1" type="highway.service" shape="159.03,279.86 162.85,280.48 165.66,280.92">
        <lane id="287933160_0" index="0" allow="pedestrian delivery bicycle" speed="5.56" length="3.47" shape="159.42,278.31 162.85,278.86"/>
    </edge>
    <edge id="287933164" from="2914925360" to="2914925354" priority="1" type="highway.service" shape="139.37,281.51 144.56,277.24 159.03,279.86">
        <lane id="287933164_0" index="0" allow="pedestrian delivery bicycle" speed="5.56" length="21.29" shape="139.49,279.33 144.12,275.53 159.17,278.26"/>
    </edge>
    <edge id="287933167" from="2914925362" to="2914925360" priority="1" type="highway.service">
        <lane id="287933167_0" index="0" allow="pedestrian delivery bicycle" speed="5.56" length="38.85" shape="99.96,272.81 138.19,279.67"/>
    </edge>
    <edge id="595164143#0" from="25632230" to="2914925366" priority="10" type="highway.tertiary" spreadType="center">
        <lane id="595164143#0_0" index="0" disallow="tram rail_urban rail rail_electric rail_fast ship container cable_car subway aircraft wheelchair scooter drone" speed="22.22" length="28.63" shape="171.02,248.03 166.41,276.29"/>
    </edge>
    <edge id="595164143#1" from="2914925366" to="10893856743" priority="10" type="highway.tertiary" spreadType="center">
        <lane id="595164143#1_0" index="0" disallow="tram rail_urban rail rail_electric rail_fast ship container cable_car subway aircraft wheelchair scooter drone" speed="22.22" length="64.54" shape="164.92,285.57 154.80,349.30"/>
    </edge>
    <edge id="595164143#2" from="10893856743" to="12610270516" priority="10" type="highway.tertiary" spreadType="center">
        <lane id="595164143#2_0" index="0" disallow="tram rail_urban rail rail_electric rail_fast ship container cable_car subway aircraft wheelchair scooter drone" speed="22.22" length="4.08" shape="154.76,349.60 154.09,353.62"/>
    </edge>
    <edge id="595164143#3" from="12610270516" to="10893856738" priority="10" type="highway.tertiary" spreadType="center" shape="154.06,353.77 152.92,360.72 140.38,445.07">
        <lane id="595164143#3_0" index="0" disallow="tram rail_urban rail rail_electric rail_fast ship container cable_car subway aircraft wheelchair scooter drone" speed="22.22" length="92.18" shape="154.04,353.91 152.92,360.72 140.38,445.07"/>
    </edge>
    <edge id="59525257#0" from="25632224" to="12106039016" priority="3" type="highway.residential" spreadType="center" shape="432.19,290.58 366.01,277.94 184.24,244.73">
        <lane id="59525257#0_0" index="0" disallow="tram rail_urban rail rail_electric rail_fast ship container cable_car subway aircraft wheelchair scooter drone" speed="13.89" length="252.00" shape="432.19,290.58 366.01,277.94 184.39,244.75"/>
    </edge>
    <edge id="59525257#1" from="12106039016" to="12106039019" priority="3" type="highway.residential" spreadType="center">
        <lane id="59525257#1_0" index="0" disallow="tram rail_urban rail rail_electric rail_fast ship container cable_car subway aircraft wheelchair scooter drone" speed="13.89" length="4.10" shape="184.10,244.70 180.07,243.96"/>
    </edge>
    <edge id="59525257#2" from="12106039019" to="25632230" priority="3" type="highway.residential" spreadType="center">
        <lane id="59525257#2_0" index="0" disallow="tram rail_urban rail rail_electric rail_fast ship container cable_car subway aircraft wheelchair scooter drone" speed="13.89" length="0.81" shape="179.77,243.90 178.98,243.76"/>
    </edge>

    <tlLogic id="10761260764" type="static" programID="0" offset="0">
        <phase duration="80" state="GG"/>
        <phase duration="5"  state="yy"/>
        <phase duration="5"  state="rr"/>
    </tlLogic>
    <tlLogic id="10893856743" type="static" programID="0" offset="0">
        <phase duration="80" state="G"/>
        <phase duration="5"  state="y"/>
        <phase duration="5"  state="r"/>
    </tlLogic>
    <tlLogic id="12106039016" type="static" programID="0" offset="0">
        <phase duration="82" state="G"/>
        <phase duration="3"  state="y"/>
        <phase duration="5"  state="r"/>
    </tlLogic>
    <tlLogic id="12106039017" type="static" programID="0" offset="0">
        <phase duration="82" state="G"/>
        <phase duration="3"  state="y"/>
        <phase duration="5"  state="r"/>
    </tlLogic>
    <tlLogic id="12106039018" type="static" programID="0" offset="0">
        <phase duration="82" state="G"/>
        <phase duration="3"  state="y"/>
        <phase duration="5"  state="r"/>
    </tlLogic>
    <tlLogic id="12106039019" type="static" programID="0" offset="0">
        <phase duration="82" state="G"/>
        <phase duration="3"  state="y"/>
        <phase duration="5"  state="r"/>
    </tlLogic>
    <tlLogic id="12106039020" type="static" programID="0" offset="0">
        <phase duration="80" state="GG"/>
        <phase duration="5"  state="yy"/>
        <phase duration="5"  state="rr"/>
    </tlLogic>
    <tlLogic id="12610270516" type="static" programID="0" offset="0">
        <phase duration="80" state="G"/>
        <phase duration="5"  state="y"/>
        <phase duration="5"  state="r"/>
    </tlLogic>

    <junction id="10761260746" type="dead_end" x="23.79" y="41.57" incLanes="" intLanes="" shape="24.09,42.52 23.48,40.62"/>
    <junction id="10761260754" type="dead_end" x="168.60" y="234.77" incLanes="1157194542_0" intLanes="" shape="169.43,235.91 169.75,233.94 167.77,233.61 167.81,234.75 168.02,235.18 168.36,235.51 168.83,235.76"/>
    <junction id="10761260755" type="dead_end" x="176.18" y="235.98" incLanes="1157194543#1_0" intLanes="" shape="176.33,234.99 176.02,236.96"/>
    <junction id="10761260764" type="traffic_light" x="173.04" y="235.47" incLanes="-1206667334#1_0 1157194543#0_0 1206667334#0_0" intLanes=":10761260764_0_0 :10761260764_1_0" shape="177.52,237.20 177.84,235.23 176.59,233.51 170.27,232.50 168.56,233.75 168.24,235.72 169.49,237.44 175.81,238.45">
        <request index="0" response="00" foes="00" cont="0"/>
        <request index="1" response="00" foes="00" cont="0"/>
    </junction>
    <junction id="10893856738" type="dead_end" x="140.38" y="445.07" incLanes="595164143#3_0" intLanes="" shape="141.96,445.31 138.79,444.84"/>
    <junction id="10893856743" type="traffic_light" x="154.78" y="349.45" incLanes="595164143#1_0" intLanes=":10893856743_0_0" shape="156.38,349.55 153.22,349.05 153.18,349.34 156.33,349.86">
        <request index="0" response="0" foes="0" cont="0"/>
    </junction>
    <junction id="12106039016" type="traffic_light" x="184.24" y="244.73" incLanes="59525257#0_0" intLanes=":12106039016_0_0" shape="184.10,246.33 184.68,243.18 184.39,243.12 183.81,246.27">
        <request index="0" response="0" foes="0" cont="0"/>
    </junction>
    <junction id="12106039017" type="traffic_light" x="160.23" y="240.34" incLanes="1032038604#0_0" intLanes=":12106039017_0_0" shape="160.09,241.94 160.67,238.79 160.37,238.73 159.80,241.88">
        <request index="0" response="0" foes="0" cont="0"/>
    </junction>
    <junction id="12106039018" type="traffic_light" x="163.22" y="240.88" incLanes="1032038604#1_0" intLanes=":12106039018_0_0" shape="162.93,242.46 163.50,239.31 162.93,242.46">
        <request index="0" response="0" foes="0" cont="0"/>
    </junction>
    <junction id="12106039019" type="traffic_light" x="179.92" y="243.93" incLanes="59525257#1_0" intLanes=":12106039019_0_0" shape="179.78,245.53 180.36,242.38 180.06,242.33 179.48,245.48">
        <request index="0" response="0" foes="0" cont="0"/>
    </junction>
    <junction id="12106039020" type="traffic_light" x="173.77" y="230.91" incLanes="-1206667334#2_0 1206667334#1_0" intLanes=":12106039020_0_0 :12106039020_1_0" shape="176.93,231.42 170.60,230.41 176.93,231.42">
        <request index="0" response="00" foes="00" cont="0"/>
        <request index="1" response="00" foes="00" cont="0"/>
    </junction>
    <junction id="12610270516" type="traffic_light" x="154.06" y="353.77" incLanes="595164143#2_0" intLanes=":12610270516_0_0" shape="155.67,353.88 152.51,353.36 152.46,353.65 155.62,354.17">
        <request index="0" response="0" foes="0" cont="0"/>
    </junction>
    <junction id="2198259543" type="dead_end" x="214.39" y="225.85" incLanes="233097110#0_0" intLanes="" shape="215.51,224.95 213.52,224.71 213.23,226.69 214.39,226.63 214.82,226.41 215.15,226.05 215.38,225.57"/>
    <junction id="2198259557" type="dead_end" x="191.75" y="229.82" incLanes="233097112#1_0" intLanes="" shape="192.69,230.37 190.81,229.26 191.10,228.88 191.32,228.74 191.51,228.67 191.60,228.67 191.53,228.75"/>
    <junction id="2198259561" type="dead_end" x="187.75" y="231.85" incLanes="233097112#0_0" intLanes="" shape="187.17,232.71 188.39,231.00 187.17,232.71"/>
    <junction id="2414393100" type="dead_end" x="208.12" y="229.73" incLanes="233097110#1_0" intLanes="" shape="208.95,230.88 209.28,228.91 207.31,228.55 207.33,229.70 207.54,230.14 207.88,230.48 208.35,230.73"/>
    <junction id="2414401915" type="priority" x="188.41" y="138.87" incLanes="1206667334#2_0" intLanes=":2414401915_0_0" shape="188.41,138.87 185.25,138.37 188.41,138.87">
        <request index="0" response="0" foes="0" cont="0"/>
    </junction>
    <junction id="2415834592" type="dead_end" x="145.01" y="221.55" incLanes="233228755#0_0" intLanes="" shape="144.18,220.40 143.85,222.37 145.82,222.71 145.79,221.58 145.58,221.14 145.25,220.80 144.78,220.56"/>
    <junction id="2415834595" type="dead_end" x="139.30" y="226.12" incLanes="233228755#1_0" intLanes="" shape="140.12,227.28 140.45,225.30 138.48,224.96 138.51,226.10 138.72,226.53 139.06,226.87 139.53,227.12"/>
    <junction id="25632224" type="dead_end" x="432.19" y="290.58" incLanes="" intLanes="" shape="432.49,289.01 431.89,292.15"/>
    <junction id="25632229" type="dead_end" x="0.00" y="211.12" incLanes="" intLanes="" shape="-0.29,212.69 0.29,209.55"/>
    <junction id="25632230" type="priority" x="171.93" y="242.47" incLanes="59525257#2_0 -1206667334#0_0 1032038604#2_0" intLanes=":25632230_0_0 :25632230_1_0 :25632230_2_0 :25632230_3_0 :25632230_4_0 :25632230_5_0" shape="178.69,245.33 179.26,242.18 177.15,241.33 176.47,240.62 176.05,239.73 175.89,238.64 175.98,237.37 169.66,236.37 168.87,238.48 168.20,239.15 167.35,239.56 166.32,239.71 165.10,239.60 164.52,242.75 167.55,243.76 168.54,244.51 169.19,245.43 169.49,246.52 169.44,247.77 172.60,248.29 173.56,246.20 174.44,245.57 175.59,245.22 177.01,245.14">
        <request index="0" response="000100" foes="100100" cont="0"/>
        <request index="1" response="010100" foes="011100" cont="0"/>
        <request index="2" response="000000" foes="100011" cont="0"/>
        <request index="3" response="010010" foes="010010" cont="0"/>
        <request index="4" response="000000" foes="001010" cont="0"/>
        <request index="5" response="000101" foes="000101" cont="0"/>
    </junction>
    <junction id="2710629432" type="dead_end" x="142.35" y="265.65" incLanes="265390429#1_0" intLanes="" shape="143.52,264.87 141.55,264.49 141.21,266.46 142.32,266.44 142.75,266.23 143.09,265.91 143.35,265.45"/>
    <junction id="2710629434" type="dead_end" x="133.66" y="256.54" incLanes="265390429#0_0" intLanes="" shape="134.46,257.70 134.81,255.73 133.69,255.75 133.26,255.95 132.91,256.28 132.66,256.74 132.49,257.32"/>
    <junction id="2914925354" type="priority" x="159.03" y="279.86" incLanes="-287933160_0 287933164_0" intLanes=":2914925354_0_0 :2914925354_1_0" shape="158.66,283.04 159.67,276.73 159.46,276.69 158.32,282.99">
        <request index="0" response="00" foes="00" cont="0"/>
        <request index="1" response="00" foes="00" cont="0"/>
    </junction>
    <junction id="2914925360" type="priority" x="139.37" y="281.51" incLanes="-287933164_0 287933167_0" intLanes=":2914925360_0_0 :2914925360_1_0" shape="142.54,283.04 138.48,278.10 137.35,284.40 139.22,284.48 140.10,284.32 140.95,284.03 141.76,283.60">
        <request index="0" response="00" foes="00" cont="0"/>
        <request index="1" response="00" foes="00" cont="0"/>
    </junction>
    <junction id="2914925362" type="priority" x="99.67" y="274.39" incLanes="-287933167_0" intLanes=":2914925362_0_0" shape="99.67,274.39 99.11,277.54 99.67,274.39">
        <request index="0" response="0" foes="0" cont="0"/>
    </junction>
    <junction id="2914925366" type="priority" x="165.66" y="280.92" incLanes="595164143#0_0 287933160_0" intLanes=":2914925366_0_0 :2914925366_1_0 :2914925366_2_0 :2914925366_3_0" shape="167.99,276.55 164.84,276.03 164.54,276.83 164.28,277.09 163.96,277.25 163.56,277.31 163.10,277.28 162.10,283.60 162.89,283.90 163.15,284.15 163.31,284.47 163.37,284.86 163.34,285.32 166.50,285.82">
        <request index="0" response="0000" foes="0100" cont="0"/>