<?xml version="1.0" encoding="UTF-8"?>

<!-- generated on 2025-10-28 12:11:57 by Eclipse SUMO netedit Version 1.24.0
<neteditConfiguration xmlns:xsi="http://www.w3.org/2001/XMLSchema-instance" xsi:noNamespaceSchemaLocation="http://sumo.dlr.de/xsd/neteditConfiguration.xsd">

    <input>
        <sumo-net-file value="/home/schweizerdiem/personal/Intelligent-Multi-Agent-Traffic-Control-System/sumo_environment/network.net.xml"/>
    </input>

    <output>
        <output-file value="/home/schweizerdiem/personal/Intelligent-Multi-Agent-Traffic-Control-System/sumo_environment/network.net.xml"/>
    </output>

    <processing>
        <offset.disable-normalization value="true"/>
    </processing>

    <junctions>
        <no-turnarounds value="true"/>
    </junctions>

    <netedit>
        <new-network value="false"/>
    </netedit>

</neteditConfiguration>
-->

<net version="1.20" junctionCornerDetail="5" limitTurnSpeed="5.50" xmlns:xsi="http://www.w3.org/2001/XMLSchema-instance" xsi:noNamespaceSchemaLocation="http://sumo.dlr.de/xsd/net_file.xsd">

    <location netOffset="0.00,0.00" convBoundary="-78.14,-383.77,461.22,143.49" origBoundary="10000000000.00,10000000000.00,-10000000000.00,-10000000000.00" projParameter="!"/>

    <edge id=":J1_0" function="internal">
        <lane id=":J1_0_0" index="0" speed="6.64" length="9.23" shape="78.72,42.52 76.25,42.87 74.46,43.94 73.35,45.73 72.92,48.24"/>
    </edge>
    <edge id=":J1_1" function="internal">
        <lane id=":J1_1_0" index="0" speed="13.89" length="14.47" shape="78.72,42.52 64.25,42.48"/>
    </edge>
    <edge id=":J1_2" function="internal">
        <lane id=":J1_2_0" index="0" speed="8.03" length="4.07" shape="78.72,42.52 74.88,41.96 74.72,41.86"/>
    </edge>
    <edge id=":J1_12" function="internal">
        <lane id=":J1_12_0" index="0" speed="8.03" length="10.14" shape="74.72,41.86 72.13,40.30 70.47,37.55 69.90,33.69"/>
    </edge>
    <edge id=":J1_3" function="internal">
        <lane id=":J1_3_0" index="0" speed="6.54" length="9.07" shape="73.10,33.67 73.46,36.14 74.52,37.90 76.27,38.96 78.72,39.32"/>
    </edge>
    <edge id=":J1_4" function="internal">
        <lane id=":J1_4_0" index="0" speed="13.89" length="14.57" shape="73.10,33.67 72.92,48.24"/>
    </edge>
    <edge id=":J1_5" function="internal">
        <lane id=":J1_5_0" index="0" speed="7.99" length="4.21" shape="73.10,33.67 72.57,37.54 72.41,37.79"/>
    </edge>
    <edge id=":J1_13" function="internal">
        <lane id=":J1_13_0" index="0" speed="7.99" length="10.07" shape="72.41,37.79 70.91,40.29 68.14,41.94 64.25,42.48"/>
    </edge>
    <edge id=":J1_6" function="internal">
        <lane id=":J1_6_0" index="0" speed="6.50" length="9.07" shape="64.26,39.28 66.74,38.94 68.51,37.89 69.56,36.14 69.90,33.69"/>
    </edge>
    <edge id=":J1_7" function="internal">
        <lane id=":J1_7_0" index="0" speed="13.89" length="14.46" shape="64.26,39.28 78.72,39.32"/>
    </edge>
    <edge id=":J1_8" function="internal">
        <lane id=":J1_8_0" index="0" speed="7.95" length="4.08" shape="64.26,39.28 68.15,39.85 68.28,39.93"/>
    </edge>
    <edge id=":J1_14" function="internal">
        <lane id=":J1_14_0" index="0" speed="7.95" length="10.22" shape="68.28,39.93 70.89,41.54 72.48,44.33 72.92,48.24"/>
    </edge>
    <edge id=":J1_9" function="internal">
        <lane id=":J1_9_0" index="0" speed="6.45" length="9.03" shape="69.72,48.14 69.44,45.67 68.44,43.91 66.71,42.84 64.25,42.48"/>
    </edge>
    <edge id=":J1_10" function="internal">
        <lane id=":J1_10_0" index="0" speed="13.89" length="14.46" shape="69.72,48.14 69.90,33.69"/>
    </edge>
    <edge id=":J1_11" function="internal">
        <lane id=":J1_11_0" index="0" speed="8.11" length="3.92" shape="69.72,48.14 70.38,44.28"/>
    </edge>
    <edge id=":J1_15" function="internal">
        <lane id=":J1_15_0" index="0" speed="8.11" length="10.36" shape="70.38,44.28 72.11,41.52 74.88,39.86 78.72,39.32"/>
    </edge>
    <edge id=":J10_0" function="internal">
        <lane id=":J10_0_0" index="0" speed="6.75" length="9.54" shape="270.52,-218.04 267.91,-217.69 266.01,-216.62 264.82,-214.82 264.35,-212.29"/>
    </edge>
    <edge id=":J10_1" function="internal">
        <lane id=":J10_1_0" index="0" speed="13.89" length="14.79" shape="270.52,-218.04 255.72,-218.09"/>
    </edge>
    <edge id=":J10_2" function="internal">
        <lane id=":J10_2_0" index="0" speed="7.86" length="4.13" shape="270.52,-218.04 266.54,-218.63 266.45,-218.69"/>
    </edge>
    <edge id=":J10_12" function="internal">
        <lane id=":J10_12_0" index="0" speed="7.86" length="10.38" shape="266.45,-218.69 263.81,-220.36 262.33,-223.24 262.10,-227.25"/>
    </edge>
    <edge id=":J10_3" function="internal">
        <lane id=":J10_3_0" index="0" speed="6.34" length="9.04" shape="265.29,-226.98 265.43,-224.48 266.35,-222.69 268.05,-221.61 270.53,-221.24"/>
    </edge>
    <edge id=":J10_4" function="internal">
        <lane id=":J10_4_0" index="0" speed="13.89" length="14.72" shape="265.29,-226.98 264.35,-212.29"/>
    </edge>
    <edge id=":J10_5" function="internal">
        <lane id=":J10_5_0" index="0" speed="8.37" length="4.00" shape="265.29,-226.98 264.40,-223.08"/>
    </edge>
    <edge id=":J10_13" function="internal">
        <lane id=":J10_13_0" index="0" speed="8.37" length="10.63" shape="264.40,-223.08 262.51,-220.30 259.62,-218.64 255.72,-218.09"/>
    </edge>
    <edge id=":J10_6" function="internal">
        <lane id=":J10_6_0" index="0" speed="6.95" length="9.77" shape="255.73,-221.29 258.32,-221.66 260.25,-222.78 261.51,-224.64 262.10,-227.25"/>
    </edge>
    <edge id=":J10_7" function="internal">
        <lane id=":J10_7_0" index="0" speed="13.89" length="14.80" shape="255.73,-221.29 270.53,-221.24"/>
    </edge>
    <edge id=":J10_8" function="internal">
        <lane id=":J10_8_0" index="0" speed="7.93" length="4.11" shape="255.73,-221.29 259.64,-220.72 259.77,-220.64"/>
    </edge>
    <edge id=":J10_14" function="internal">
        <lane id=":J10_14_0" index="0" speed="7.93" length="10.24" shape="259.77,-220.64 262.38,-219.03 263.95,-216.22 264.35,-212.29"/>
    </edge>
    <edge id=":J10_9" function="internal">
        <lane id=":J10_9_0" index="0" speed="6.42" length="9.03" shape="261.15,-212.42 260.90,-214.90 259.91,-216.67 258.19,-217.73 255.72,-218.09"/>
    </edge>
    <edge id=":J10_10" function="internal">
        <lane id=":J10_10_0" index="0" speed="13.89" length="14.86" shape="261.15,-212.42 262.10,-227.25"/>
    </edge>
    <edge id=":J10_11" function="internal">
        <lane id=":J10_11_0" index="0" speed="8.21" length="4.27" shape="261.15,-212.42 261.88,-216.29 262.06,-216.57"/>
    </edge>
    <edge id=":J10_15" function="internal">
        <lane id=":J10_15_0" index="0" speed="8.21" length="10.29" shape="262.06,-216.57 263.68,-219.06 266.56,-220.70 270.53,-221.24"/>
    </edge>
    <edge id=":J2_0" function="internal">
        <lane id=":J2_0_0" index="0" speed="6.58" length="9.13" shape="250.71,48.37 250.32,45.88 249.24,44.10 247.48,43.03 245.04,42.68"/>
    </edge>
    <edge id=":J2_1" function="internal">
        <lane id=":J2_1_0" index="0" speed="13.89" length="14.69" shape="250.71,48.37 250.89,33.69"/>
    </edge>
    <edge id=":J2_2" function="internal">
        <lane id=":J2_2_0" index="0" speed="7.98" length="4.31" shape="250.71,48.37 251.20,44.48 251.40,44.15"/>
    </edge>
    <edge id=":J2_12" function="internal">
        <lane id=":J2_12_0" index="0" speed="7.98" length="10.02" shape="251.40,44.15 252.83,41.71 255.60,40.04 259.51,39.49"/>
    </edge>
    <edge id=":J2_3" function="internal">
        <lane id=":J2_3_0" index="0" speed="6.48" length="9.09" shape="259.51,42.69 257.02,43.04 255.26,44.09 254.22,45.85 253.91,48.31"/>
    </edge>
    <edge id=":J2_4" function="internal">
        <lane id=":J2_4_0" index="0" speed="13.89" length="14.47" shape="259.51,42.69 245.04,42.68"/>
    </edge>
    <edge id=":J2_5" function="internal">
        <lane id=":J2_5_0" index="0" speed="7.93" length="4.10" shape="259.51,42.69 255.60,42.12 255.47,42.05"/>
    </edge>
    <edge id=":J2_13" function="internal">
        <lane id=":J2_13_0" index="0" speed="7.93" length="10.25" shape="255.47,42.05 252.85,40.43 251.29,37.62 250.89,33.69"/>
    </edge>
    <edge id=":J2_6" function="internal">
        <lane id=":J2_6_0" index="0" speed="6.42" length="9.04" shape="254.09,33.82 254.34,36.30 255.32,38.07 257.05,39.13 259.51,39.49"/>
    </edge>
    <edge id=":J2_7" function="internal">
        <lane id=":J2_7_0" index="0" speed="13.89" length="14.49" shape="254.09,33.82 253.91,48.31"/>
    </edge>
    <edge id=":J2_8" function="internal">
        <lane id=":J2_8_0" index="0" speed="8.15" length="3.94" shape="254.09,33.82 253.38,37.70"/>
    </edge>
    <edge id=":J2_14" function="internal">
        <lane id=":J2_14_0" index="0" speed="8.15" length="10.37" shape="253.38,37.70 251.64,40.47 248.86,42.12 245.04,42.68"/>
    </edge>
    <edge id=":J2_9" function="internal">
        <lane id=":J2_9_0" index="0" speed="6.69" length="9.30" shape="245.04,39.48 247.51,39.12 249.30,38.03 250.43,36.22 250.89,33.69"/>
    </edge>
    <edge id=":J2_10" function="internal">
        <lane id=":J2_10_0" index="0" speed="13.89" length="14.47" shape="245.04,39.48 259.51,39.49"/>
    </edge>
    <edge id=":J2_11" function="internal">
        <lane id=":J2_11_0" index="0" speed="8.07" length="4.03" shape="245.04,39.48 248.86,40.03 249.01,40.12"/>
    </edge>
    <edge id=":J2_15" function="internal">
        <lane id=":J2_15_0" index="0" speed="8.07" length="10.19" shape="249.01,40.12 251.61,41.69 253.30,44.45 253.91,48.31"/>
    </edge>
    <edge id=":J5_0" function="internal">
        <lane id=":J5_0_0" index="0" speed="6.54" length="9.08" shape="69.15,-92.72 68.79,-95.19 67.73,-96.96 65.98,-98.03 63.53,-98.39"/>
    </edge>
    <edge id=":J5_1" function="internal">
        <lane id=":J5_1_0" index="0" speed="13.89" length="14.53" shape="69.15,-92.72 69.27,-107.26"/>
    </edge>
    <edge id=":J5_2" function="internal">
        <lane id=":J5_2_0" index="0" speed="7.99" length="4.18" shape="69.15,-92.72 69.69,-96.59 69.83,-96.83"/>
    </edge>
    <edge id=":J5_12" function="internal">
        <lane id=":J5_12_0" index="0" speed="7.99" length="10.07" shape="69.83,-96.83 71.33,-99.35 74.10,-101.00 77.98,-101.53"/>
    </edge>
    <edge id=":J5_3" function="internal">
        <lane id=":J5_3_0" index="0" speed="6.49" length="9.05" shape="77.96,-98.33 75.49,-97.99 73.74,-96.95 72.69,-95.20 72.35,-92.74"/>
    </edge>
    <edge id=":J5_4" function="internal">
        <lane id=":J5_4_0" index="0" speed="13.89" length="14.43" shape="77.96,-98.33 63.53,-98.39"/>
    </edge>
    <edge id=":J5_5" function="internal">
        <lane id=":J5_5_0" index="0" speed="7.97" length="4.07" shape="77.96,-98.33 74.09,-98.90 73.95,-98.99"/>
    </edge>
    <edge id=":J5_13" function="internal">
        <lane id=":J5_13_0" index="0" speed="7.97" length="10.19" shape="73.95,-98.99 71.35,-100.58 69.74,-103.37 69.27,-107.26"/>
    </edge>
    <edge id=":J5_6" function="internal">
        <lane id=":J5_6_0" index="0" speed="6.47" length="9.03" shape="72.47,-107.18 72.77,-104.72 73.79,-102.96 75.52,-101.89 77.98,-101.53"/>
    </edge>
    <edge id=":J5_7" function="internal">
        <lane id=":J5_7_0" index="0" speed="13.89" length="14.44" shape="72.47,-107.18 72.35,-92.74"/>
    </edge>
    <edge id=":J5_8" function="internal">
        <lane id=":J5_8_0" index="0" speed="8.07" length="3.91" shape="72.47,-107.18 71.84,-103.33"/>
    </edge>
    <edge id=":J5_14" function="internal">
        <lane id=":J5_14_0" index="0" speed="8.07" length="10.33" shape="71.84,-103.33 70.14,-100.57 67.37,-98.93 63.53,-98.39"/>
    </edge>
    <edge id=":J5_9" function="internal">
        <lane id=":J5_9_0" index="0" speed="6.59" length="9.15" shape="63.54,-101.59 66.00,-101.94 67.78,-103.00 68.87,-104.77 69.27,-107.26"/>
    </edge>
    <edge id=":J5_10" function="internal">
        <lane id=":J5_10_0" index="0" speed="13.89" length="14.43" shape="63.54,-101.59 77.98,-101.53"/>
    </edge>
    <edge id=":J5_11" function="internal">
        <lane id=":J5_11_0" index="0" speed="8.03" length="4.06" shape="63.54,-101.59 67.38,-101.02 67.53,-100.93"/>
    </edge>
    <edge id=":J5_15" function="internal">
        <lane id=":J5_15_0" index="0" speed="8.03" length="10.15" shape="67.53,-100.93 70.13,-99.36 71.78,-96.60 72.35,-92.74"/>
    </edge>
    <edge id=":J6_0" function="internal">
        <lane id=":J6_0_0" index="0" speed="6.74" length="9.45" shape="265.45,-97.47 262.90,-97.11 261.04,-96.02 259.88,-94.22 259.41,-91.69"/>
    </edge>
    <edge id=":J6_1" function="internal">
        <lane id=":J6_1_0" index="0" speed="13.89" length="14.66" shape="265.45,-97.47 250.79,-97.50"/>
    </edge>
    <edge id=":J6_2" function="internal">
        <lane id=":J6_2_0" index="0" speed="7.93" length="4.12" shape="265.45,-97.47 261.54,-98.03 261.40,-98.12"/>
    </edge>
    <edge id=":J6_12" function="internal">
        <lane id=":J6_12_0" index="0" speed="7.93" length="10.23" shape="261.40,-98.12 258.80,-99.72 257.22,-102.53 256.82,-106.46"/>
    </edge>
    <edge id=":J6_3" function="internal">
        <lane id=":J6_3_0" index="0" speed="6.42" length="9.04" shape="260.02,-106.33 260.27,-103.85 261.26,-102.08 262.99,-101.02 265.45,-100.67"/>
    </edge>
    <edge id=":J6_4" function="internal">
        <lane id=":J6_4_0" index="0" speed="13.89" length="14.66" shape="260.02,-106.33 259.41,-91.69"/>
    </edge>
    <edge id=":J6_5" function="internal">
        <lane id=":J6_5_0" index="0" speed="8.18" length="4.13" shape="260.02,-106.33 259.31,-102.45 259.21,-102.30"/>
    </edge>
    <edge id=":J6_13" function="internal">
        <lane id=":J6_13_0" index="0" speed="8.18" length="10.32" shape="259.21,-102.30 257.53,-99.69 254.69,-98.04 250.79,-97.50"/>
    </edge>
    <edge id=":J6_6" function="internal">
        <lane id=":J6_6_0" index="0" speed="6.72" length="9.42" shape="250.81,-100.70 253.35,-101.05 255.20,-102.13 256.36,-103.93 256.82,-106.46"/>
    </edge>
    <edge id=":J6_7" function="internal">
        <lane id=":J6_7_0" index="0" speed="13.89" length="14.65" shape="250.81,-100.70 265.45,-100.67"/>
    </edge>
    <edge id=":J6_8" function="internal">
        <lane id=":J6_8_0" index="0" speed="7.93" length="4.08" shape="250.81,-100.70 254.71,-100.12 254.82,-100.06"/>
    </edge>
    <edge id=":J6_14" function="internal">
        <lane id=":J6_14_0" index="0" speed="7.93" length="10.26" shape="254.82,-100.06 257.45,-98.43 259.01,-95.61 259.41,-91.69"/>
    </edge>
    <edge id=":J6_9" function="internal">
        <lane id=":J6_9_0" index="0" speed="6.43" length="9.03" shape="256.21,-91.82 255.96,-94.30 254.98,-96.07 253.25,-97.14 250.79,-97.50"/>
    </edge>
    <edge id=":J6_10" function="internal">
        <lane id=":J6_10_0" index="0" speed="13.89" length="14.65" shape="256.21,-91.82 256.82,-106.46"/>
    </edge>
    <edge id=":J6_11" function="internal">
        <lane id=":J6_11_0" index="0" speed="8.20" length="4.11" shape="256.21,-91.82 256.93,-95.69 257.02,-95.84"/>
    </edge>
    <edge id=":J6_15" function="internal">
        <lane id=":J6_15_0" index="0" speed="8.20" length="10.35" shape="257.02,-95.84 258.71,-98.46 261.55,-100.12 265.45,-100.67"/>
    </edge>
    <edge id=":J9_0" function="internal">
        <lane id=":J9_0_0" index="0" speed="6.60" length="9.17" shape="80.54,-218.51 78.09,-218.15 76.33,-217.08 75.24,-215.29 74.84,-212.79"/>
    </edge>
    <edge id=":J9_1" function="internal">
        <lane id=":J9_1_0" index="0" speed="13.89" length="14.42" shape="80.54,-218.51 66.11,-218.46"/>
    </edge>
    <edge id=":J9_2" function="internal">
        <lane id=":J9_2_0" index="0" speed="8.06" length="4.00" shape="80.54,-218.51 76.72,-219.06 76.60,-219.14"/>
    </edge>
    <edge id=":J9_12" function="internal">
        <lane id=":J9_12_0" index="0" speed="8.06" length="10.19" shape="76.60,-219.14 73.97,-220.72 72.29,-223.47 71.68,-227.32"/>
    </edge>
    <edge id=":J9_3" function="internal">
        <lane id=":J9_3_0" index="0" speed="6.57" length="9.10" shape="74.88,-227.37 75.27,-224.90 76.34,-223.13 78.10,-222.06 80.55,-221.71"/>
    </edge>
    <edge id=":J9_4" function="internal">
        <lane id=":J9_4_0" index="0" speed="13.89" length="14.59" shape="74.88,-227.37 74.84,-212.79"/>
    </edge>
    <edge id=":J9_5" function="internal">
        <lane id=":J9_5_0" index="0" speed="8.00" length="4.21" shape="74.88,-227.37 74.39,-223.50 74.23,-223.24"/>
    </edge>
    <edge id=":J9_13" function="internal">
        <lane id=":J9_13_0" index="0" speed="8.00" length="10.07" shape="74.23,-223.24 72.76,-220.73 70.00,-219.04 66.11,-218.46"/>
    </edge>
    <edge id=":J9_6" function="internal">
        <lane id=":J9_6_0" index="0" speed="6.51" length="9.09" shape="66.09,-221.66 68.57,-222.03 70.33,-223.10 71.37,-224.86 71.68,-227.32"/>
    </edge>
    <edge id=":J9_7" function="internal">
        <lane id=":J9_7_0" index="0" speed="13.89" length="14.46" shape="66.09,-221.66 80.55,-221.71"/>
    </edge>
    <edge id=":J9_8" function="internal">
        <lane id=":J9_8_0" index="0" speed="7.95" length="4.13" shape="66.09,-221.66 69.99,-221.13 70.16,-221.03"/>
    </edge>
    <edge id=":J9_14" function="internal">
        <lane id=":J9_14_0" index="0" speed="7.95" length="10.18" shape="70.16,-221.03 72.75,-219.48 74.37,-216.70 74.84,-212.79"/>
    </edge>
    <edge id=":J9_9" function="internal">
        <lane id=":J9_9_0" index="0" speed="6.44" length="9.03" shape="71.64,-212.86 71.34,-215.33 70.32,-217.08 68.58,-218.13 66.11,-218.46"/>
    </edge>
    <edge id=":J9_10" function="internal">
        <lane id=":J9_10_0" index="0" speed="13.89" length="14.46" shape="71.64,-212.86 71.68,-227.32"/>
    </edge>
    <edge id=":J9_11" function="internal">
        <lane id=":J9_11_0" index="0" speed="8.08" length="3.93" shape="71.64,-212.86 72.27,-216.74"/>
    </edge>
    <edge id=":J9_15" function="internal">
        <lane id=":J9_15_0" index="0" speed="8.08" length="10.32" shape="72.27,-216.74 73.96,-219.50 76.72,-221.16 80.55,-221.71"/>
    </edge>

    <edge id="-E0" from="J1" to="J0" priority="-1">
        <lane id="-E0_0" index="0" speed="13.89" length="136.51" shape="64.25,42.48 -72.26,41.92"/>
    </edge>
    <edge id="-E1" from="J2" to="J1" priority="-1">
        <lane id="-E1_0" index="0" speed="13.89" length="166.32" shape="245.04,42.68 78.72,42.52"/>
    </edge>
    <edge id="-E10" from="J6" to="J2" priority="-1">
        <lane id="-E10_0" index="0" speed="13.89" length="125.62" shape="259.41,-91.69 254.09,33.82"/>
    </edge>
    <edge id="-E11" from="J10" to="J6" priority="-1">
        <lane id="-E11_0" index="0" speed="13.89" length="106.05" shape="264.35,-212.29 260.02,-106.33"/>
    </edge>
    <edge id="-E12" from="J13" to="J10" priority="-1">
        <lane id="-E12_0" index="0" speed="13.89" length="139.23" shape="277.20,-365.70 265.29,-226.98"/>
    </edge>
    <edge id="-E13" from="J1" to="J14" priority="-1">
        <lane id="-E13_0" index="0" speed="13.89" length="93.99" shape="72.92,48.24 70.07,142.19"/>
    </edge>
    <edge id="-E14" from="J5" to="J1" priority="-1">
        <lane id="-E14_0" index="0" speed="13.89" length="126.41" shape="72.35,-92.74 73.10,33.67"/>
    </edge>
    <edge id="-E15" from="J9" to="J5" priority="-1">
        <lane id="-E15_0" index="0" speed="13.89" length="105.63" shape="74.84,-212.79 72.47,-107.18"/>
    </edge>
    <edge id="-E16" from="J15" to="J9" priority="-1">
        <lane id="-E16_0" index="0" speed="13.89" length="156.44" shape="72.31,-383.80 74.88,-227.37"/>
    </edge>
    <edge id="-E2" from="J3" to="J2" priority="-1">
        <lane id="-E2_0" index="0" speed="13.89" length="177.97" shape="437.48,42.85 259.51,42.69"/>
    </edge>
    <edge id="-E3" from="J5" to="J4" priority="-1">
        <lane id="-E3_0" index="0" speed="13.89" length="139.44" shape="63.53,-98.39 -75.90,-98.81"/>
    </edge>
    <edge id="-E4" from="J6" to="J5" priority="-1">
        <lane id="-E4_0" index="0" speed="13.89" length="172.83" shape="250.79,-97.50 77.96,-98.33"/>
    </edge>
    <edge id="-E5" from="J7" to="J6" priority="-1">
        <lane id="-E5_0" index="0" speed="13.89" length="189.04" shape="454.50,-97.47 265.45,-97.47"/>
    </edge>
    <edge id="-E6" from="J9" to="J8" priority="-1">
        <lane id="-E6_0" index="0" speed="13.89" length="144.25" shape="66.11,-218.46 -78.13,-217.18"/>
    </edge>
    <edge id="-E7" from="J10" to="J9" priority="-1">
        <lane id="-E7_0" index="0" speed="13.89" length="175.19" shape="255.72,-218.09 80.54,-218.51"/>
    </edge>
    <edge id="-E8" from="J11" to="J10" priority="-1">
        <lane id="-E8_0" index="0" speed="13.89" length="190.70" shape="461.21,-217.18 270.52,-218.04"/>
    </edge>
    <edge id="-E9" from="J2" to="J12" priority="-1">
        <lane id="-E9_0" index="0" speed="13.89" length="95.16" shape="253.91,48.31 255.68,143.46"/>
    </edge>
    <edge id="E0" from="J0" to="J1" priority="-1">
        <lane id="E0_0" index="0" speed="13.89" length="136.51" shape="-72.25,38.72 64.26,39.28"/>
    </edge>
    <edge id="E1" from="J1" to="J2" priority="-1">
        <lane id="E1_0" index="0" speed="13.89" length="166.32" shape="78.72,39.32 245.04,39.48"/>
    </edge>
    <edge id="E10" from="J2" to="J6" priority="-1">
        <lane id="E10_0" index="0" speed="13.89" length="125.62" shape="250.89,33.69 256.21,-91.82"/>
    </edge>
    <edge id="E11" from="J6" to="J10" priority="-1">
        <lane id="E11_0" index="0" speed="13.89" length="106.05" shape="256.82,-106.46 261.15,-212.42"/>
    </edge>
    <edge id="E12" from="J10" to="J13" priority="-1">
        <lane id="E12_0" index="0" speed="13.89" length="139.23" shape="262.10,-227.25 274.01,-365.97"/>
    </edge>
    <edge id="E13" from="J14" to="J1" priority="-1">
        <lane id="E13_0" index="0" speed="13.89" length="93.99" shape="66.87,142.09 69.72,48.14"/>
    </edge>
    <edge id="E14" from="J1" to="J5" priority="-1">
        <lane id="E14_0" index="0" speed="13.89" length="126.41" shape="69.90,33.69 69.15,-92.72"/>
    </edge>
    <edge id="E15" from="J5" to="J9" priority="-1">
        <lane id="E15_0" index="0" speed="13.89" length="105.63" shape="69.27,-107.26 71.64,-212.86"/>
    </edge>
    <edge id="E16" from="J9" to="J15" priority="-1">
        <lane id="E16_0" index="0" speed="13.89" length="156.44" shape="71.68,-227.32 69.11,-383.74"/>
    </edge>
    <edge id="E2" from="J2" to="J3" priority="-1">
        <lane id="E2_0" index="0" speed="13.89" length="177.97" shape="259.51,39.49 437.48,39.65"/>
    </edge>
    <edge id="E3" from="J4" to="J5" priority="-1">
        <lane id="E3_0" index="0" speed="13.89" length="139.44" shape="-75.89,-102.01 63.54,-101.59"/>
    </edge>
    <edge id="E4" from="J5" to="J6" priority="-1">
        <lane id="E4_0" index="0" speed="13.89" length="172.83" shape="77.98,-101.53 250.81,-100.70"/>
    </edge>
    <edge id="E5" from="J6" to="J7" priority="-1">
        <lane id="E5_0" index="0" speed="13.89" length="189.04" shape="265.45,-100.67 454.50,-100.67"/>
    </edge>
    <edge id="E6" from="J8" to="J9" priority="-1">
        <lane id="E6_0" index="0" speed="13.89" length="144.25" shape="-78.15,-220.38 66.09,-221.66"/>
    </edge>
    <edge id="E7" from="J9" to="J10" priority="-1">
        <lane id="E7_0" index="0" speed="13.89" length="175.19" shape="80.55,-221.71 255.73,-221.29"/>
    </edge>
    <edge id="E8" from="J10" to="J11" priority="-1">
        <lane id="E8_0" index="0" speed="13.89" length="190.70" shape="270.53,-221.24 461.23,-220.38"/>
    </edge>
    <edge id="E9" from="J12" to="J2" priority="-1">
        <lane id="E9_0" index="0" speed="13.89" length="95.16" shape="252.49,143.52 250.71,48.37"/>
    </edge>

    <tlLogic id="J1" type="static" programID="0" offset="0">
        <phase duration="42" state="GGgrrrGGgrrr"/>
        <phase duration="3"  state="yyyrrryyyrrr"/>
        <phase duration="42" state="rrrGGgrrrGGg"/>
        <phase duration="3"  state="rrryyyrrryyy"/>
    </tlLogic>
    <tlLogic id="J10" type="static" programID="0" offset="0">
        <phase duration="42" state="GGgrrrGGgrrr"/>
        <phase duration="3"  state="yyyrrryyyrrr"/>
        <phase duration="42" state="rrrGGgrrrGGg"/>
        <phase duration="3"  state="rrryyyrrryyy"/>
    </tlLogic>
    <tlLogic id="J2" type="static" programID="0" offset="0">
        <phase duration="42" state="rrrGGgrrrGGg"/>
        <phase duration="3"  state="rrryyyrrryyy"/>
        <phase duration="42" state="GGgrrrGGgrrr"/>
        <phase duration="3"  state="yyyrrryyyrrr"/>
    </tlLogic>
    <tlLogic id="J5" type="static" programID="0" offset="0">
        <phase duration="42" state="rrrGGgrrrGGg"/>
        <phase duration="3"  state="rrryyyrrryyy"/>
        <phase duration="42" state="GGgrrrGGgrrr"/>
        <phase duration="3"  state="yyyrrryyyrrr"/>
    </tlLogic>
    <tlLogic id="J6" type="static" programID="0" offset="0">
        <phase duration="42" state="rrrGGgrrrGGg"/>
        <phase duration="3"  state="rrryyyrrryyy"/>
        <phase duration="42" state="GGgrrrGGgrrr"/>
        <phase duration="3"  state="yyyrrryyyrrr"/>
    </tlLogic>
    <tlLogic id="J9" type="static" programID="0" offset="0">
        <phase duration="42" state="GGgrrrGGgrrr"/>
        <phase duration="3"  state="yyyrrryyyrrr"/>
        <phase duration="42" state="rrrGGgrrrGGg"/>
        <phase duration="3"  state="rrryyyrrryyy"/>
    </tlLogic>

    <junction id="J0" type="dead_end" x="-72.26" y="40.32" incLanes="-E0_0" intLanes="" shape="-72.26,40.32 -72.27,43.52 -72.26,40.32"/>
    <junction id="J1" type="traffic_light" x="71.54" y="40.91" incLanes="-E1_0 -E14_0 E0_0 E13_0" intLanes=":J1_0_0 :J1_1_0 :J1_12_0 :J1_3_0 :J1_4_0 :J1_13_0 :J1_6_0 :J1_7_0 :J1_14_0 :J1_9_0 :J1_10_0 :J1_15_0" shape="78.72,44.12 78.72,37.72 76.50,37.26 75.72,36.70 75.16,35.91 74.82,34.90 74.70,33.66 68.30,33.70 67.86,35.92 67.30,36.69 66.52,37.24 65.51,37.57 64.27,37.68 64.24,44.08 66.45,44.53 67.21,45.09 67.75,45.87 68.05,46.87 68.12,48.09 74.52,48.29 75.04,45.97 75.63,45.16 76.44,44.58 77.47,44.23">
        <request index="0"  response="000000000000" foes="000100010000" cont="0"/>
        <request index="1"  response="100000100000" foes="111100110000" cont="0"/>
        <request index="2"  response="100111100000" foes="110111110000" cont="1"/>
        <request index="3"  response="000010000000" foes="100010000000" cont="0"/>
        <request index="4"  response="000110000111" foes="100110000111" cont="0"/>
        <request index="5"  response="111110000110" foes="111110000110" cont="1"/>
        <request index="6"  response="000000000000" foes="010000000100" cont="0"/>
        <request index="7"  response="100000100000" foes="110000111100" cont="0"/>
        <request index="8"  response="100000100011" foes="110000110111" cont="1"/>
        <request index="9"  response="000000000010" foes="000000100010" cont="0"/>
        <request index="10" response="000111000110" foes="000111100110" cont="0"/>
        <request index="11" response="000110011110" foes="000110111110" cont="1"/>
    </junction>
    <junction id="J10" type="traffic_light" x="263.05" y="-219.67" incLanes="-E8_0 -E12_0 E7_0 E11_0" intLanes=":J10_0_0 :J10_1_0 :J10_12_0 :J10_3_0 :J10_4_0 :J10_13_0 :J10_6_0 :J10_7_0 :J10_14_0 :J10_9_0 :J10_10_0 :J10_15_0" shape="270.51,-216.44 270.54,-222.84 268.35,-223.29 267.62,-223.85 267.13,-224.63 266.89,-225.63 266.88,-226.84 260.50,-227.39 259.80,-224.89 259.12,-224.01 258.21,-223.39 257.08,-223.01 255.73,-222.89 255.72,-216.49 257.92,-216.04 258.68,-215.49 259.20,-214.71 259.49,-213.71 259.56,-212.49 265.95,-212.22 266.53,-214.58 267.18,-215.40 268.05,-215.98 269.16,-216.33">
        <request index="0"  response="000000000000" foes="000100010000" cont="0"/>
        <request index="1"  response="100000100000" foes="111100110000" cont="0"/>
        <request index="2"  response="100111100000" foes="110111110000" cont="1"/>
        <request index="3"  response="000010000000" foes="100010000000" cont="0"/>
        <request index="4"  response="000110000111" foes="100110000111" cont="0"/>
        <request index="5"  response="111110000110" foes="111110000110" cont="1"/>
        <request index="6"  response="000000000000" foes="010000000100" cont="0"/>
        <request index="7"  response="100000100000" foes="110000111100" cont="0"/>
        <request index="8"  response="100000100011" foes="110000110111" cont="1"/>
        <request index="9"  response="000000000010" foes="000000100010" cont="0"/>
        <request index="10" response="000111000110" foes="000111100110" cont="0"/>
        <request index="11" response="000110011110" foes="000110111110" cont="1"/>
    </junction>
    <junction id="J11" type="dead_end" x="461.22" y="-218.78" incLanes="E8_0" intLanes="" shape="461.22,-218.78 461.24,-221.98 461.22,-218.78"/>
    <junction id="J12" type="dead_end" x="254.08" y="143.49" incLanes="-E9_0" intLanes="" shape="254.08,143.49 257.28,143.43 254.08,143.49"/>
    <junction id="J13" type="dead_end" x="275.61" y="-365.84" incLanes="E12_0" intLanes="" shape="275.61,-365.84 272.42,-366.11 275.61,-365.84"/>
    <junction id="J14" type="dead_end" x="68.47" y="142.14" incLanes="-E13_0" intLanes="" shape="68.47,142.14 71.67,142.24 68.47,142.14"/>
    <junction id="J15" type="dead_end" x="70.71" y="-383.77" incLanes="E16_0" intLanes="" shape="70.71,-383.77 67.51,-383.72 70.71,-383.77"/>