<?xml version="1.0" encoding="UTF-8"?>

<!-- generated on 2025-10-13 10:26:55 by Eclipse SUMO netedit Version 1.24.0
<neteditConfiguration xmlns:xsi="http://www.w3.org/2001/XMLSchema-instance" xsi:noNamespaceSchemaLocation="http://sumo.dlr.de/xsd/neteditConfiguration.xsd">

    <input>
        <sumo-net-file value="/home/schweizerdiem/personal/Intelligent-Multi-Agent-Traffic-Control-System/sumo_environment/network.net.xml"/>
    </input>

    <output>
        <output-file value="/home/schweizerdiem/personal/Intelligent-Multi-Agent-Traffic-Control-System/sumo_environment/network.net.xml"/>
    </output>

    <processing>
        <offset.disable-normalization value="true"/>
    </processing>

    <junctions>
        <no-turnarounds value="true"/>
    </junctions>

    <netedit>
        <new-network value="false"/>
    </netedit>

</neteditConfiguration>
-->

<net version="1.20" junctionCornerDetail="5" limitTurnSpeed="5.50" xmlns:xsi="http://www.w3.org/2001/XMLSchema-instance" xsi:noNamespaceSchemaLocation="http://sumo.dlr.de/xsd/net_file.xsd">

    <location netOffset="0.00,0.00" convBoundary="-100.00,-100.00,100.00,100.00" origBoundary="10000000000.00,10000000000.00,-10000000000.00,-10000000000.00" projParameter="!"/>

    <edge id=":J11_0" function="internal">
        <lane id=":J11_0_0" index="0" speed="13.89" length="11.20" shape="-1.60,4.00 -1.60,-7.20"/>
    </edge>
    <edge id=":J11_1" function="internal">
        <lane id=":J11_1_0" index="0" speed="6.51" length="9.03" shape="-1.60,4.00 -1.25,1.55 -0.20,-0.20 1.55,-1.25 4.00,-1.60"/>
    </edge>
    <edge id=":J11_2" function="internal">
        <lane id=":J11_2_0" index="0" speed="6.51" length="9.03" shape="-7.20,-1.60 -4.75,-1.95 -3.00,-3.00 -1.95,-4.75 -1.60,-7.20"/>
    </edge>
    <edge id=":J11_3" function="internal">
        <lane id=":J11_3_0" index="0" speed="13.89" length="11.20" shape="-7.20,-1.60 4.00,-1.60"/>
    </edge>

    <edge id="E5" from="J10" to="J11" priority="-1">
        <lane id="E5_0" index="0" speed="13.89" length="96.00" shape="-1.60,100.00 -1.60,4.00"/>
    </edge>
    <edge id="E6" from="J11" to="J12" priority="-1">
        <lane id="E6_0" index="0" speed="13.89" length="92.80" shape="-1.60,-7.20 -1.60,-100.00"/>
    </edge>
    <edge id="E7" from="J13" to="J11" priority="-1">
        <lane id="E7_0" index="0" speed="13.89" length="92.80" shape="-100.00,-1.60 -7.20,-1.60"/>
    </edge>
    <edge id="E8" from="J11" to="J14" priority="-1">
        <lane id="E8_0" index="0" speed="13.89" length="96.00" shape="4.00,-1.60 100.00,-1.60"/>
    </edge>

    <tlLogic id="J11" type="static" programID="0" offset="0">
        <phase duration="42" state="GGrr"/>
        <phase duration="3"  state="yyrr"/>
        <phase duration="42" state="rrGG"/>
        <phase duration="3"  state="rryy"/>
    </tlLogic>

    <junction id="J10" type="dead_end" x="0.00" y="100.00" incLanes="" intLanes="" shape="0.00,100.00 -3.20,100.00"/>
    <junction id="J11" type="traffic_light" x="0.00" y="0.00" incLanes="E5_0 E7_0" intLanes=":J11_0_0 :J11_1_0 :J11_2_0 :J11_3_0" shape="-3.20,4.00 0.00,4.00 0.44,1.78 1.00,1.00 1.78,0.44 2.78,0.11 4.00,0.00 4.00,-3.20 1.78,-3.64 1.00,-4.20 0.44,-4.98 0.11,-5.98 0.00,-7.20 -3.20,-7.20 -3.64,-4.98 -4.20,-4.20 -4.98,-3.64 -5.98,-3.31 -7.20,-3.20 -7.20,0.00 -4.98,0.44 -4.20,1.00 -3.64,1.78 -3.31,2.78">
        <request index="0" response="1100" foes="1100" cont="0"/>
        <request index="1" response="1000" foes="1000" cont="0"/>
        <request index="2" response="0000" foes="0001" cont="0"/>
        <request index="3" response="0000" foes="0011" cont="0"/>
    </junction>
    <junction id="J12" type="dead_end" x="0.00" y="-100.00" incLanes="E6_0" intLanes="" shape="-3.20,-100.00 0.00,-100.00"/>
    <junction id="J13" type="dead_end" x="-100.00" y="0.00" incLanes="" intLanes="" shape="-100.00,0.00 -100.00,-3.20"/>
    <junction id="J14" type="dead_end" x="100.00" y="0.00" incLanes="E8_0" intLanes="" shape="100.00,-3.20 100.00,0.00"/>

    <connection from="E5" to="E6" fromLane="0" toLane="0" via=":J11_0_0" tl="J11" linkIndex="0" dir="s" state="o"/>
    <connection from="E5" to="E8" fromLane="0" toLane="0" via=":J11_1_0" tl="J11" linkIndex="1" dir="l" state="o"/>
    <connection from="E7" to="E6" fromLane="0" toLane="0" via=":J11_2_0" tl="J11" linkIndex="2" dir="r" state="O"/>
    <connection from="E7" to="E8" fromLane="0" toLane="0" via=":J11_3_0" tl="J11" linkIndex="3" dir="s" state="O"/>

    <connection from=":J11_0" to="E6" fromLane="0" toLane="0" dir="s" state="M"/>
    <connection from=":J11_1" to="E8" fromLane="0" toLane="0" dir="l" state="M"/>
    <connection from=":J11_2" to="E6" fromLane="0" toLane="0" dir="r" state="M"/>
    <connection from=":J11_3" to="E8" fromLane="0" toLane="0" dir="s" state="M"/>

</net>
