<?xml version="1.0" encoding="UTF-8"?>

<!-- generated on 2025-10-28 12:13:30.404756 by randomTrips.py UNKNOWN
<configuration>
    <net-file value="network.net.xml"/>
    <route-file value="routes.rou.xml"/>
    <length value="True"/>
    <end value="1000.0"/>
</configuration>
-->

<!-- generated on 2025-10-28 12:13:30 by Eclipse SUMO duarouter Version 1.24.0
<duarouterConfiguration xmlns:xsi="http://www.w3.org/2001/XMLSchema-instance" xsi:noNamespaceSchemaLocation="http://sumo.dlr.de/xsd/duarouterConfiguration.xsd">

    <input>
        <net-file value="network.net.xml"/>
        <route-files value="trips.trips.xml"/>
    </input>

    <output>
        <output-file value="routes.rou.xml"/>
        <alternatives-output value="NUL"/>
    </output>

    <time>
        <begin value="0"/>
        <end value="1000.0"/>
    </time>

    <report>
        <no-warnings value="true"/>
        <ignore-errors value="true"/>
        <no-step-log value="true"/>
    </report>

</duarouterConfiguration>
-->

<routes xmlns:xsi="http://www.w3.org/2001/XMLSchema-instance" xsi:noNamespaceSchemaLocation="http://sumo.dlr.de/xsd/routes_file.xsd">
    <vehicle id="0" depart="0.00">
        <route edges="E10 -E4 -E14 -E0"/>
    </vehicle>
    <vehicle id="1" depart="1.00">
        <route edges="-E2 E10 E11 -E7 -E15"/>
    </vehicle>
    <vehicle id="2" depart="2.00">
        <route edges="E14 E15"/>
    </vehicle>
    <vehicle id="3" depart="3.00">
        <route edges="E6 E7 -E11 -E10 -E1"/>
    </vehicle>
    <vehicle id="4" depart="4.00">
        <route edges="-E5 -E10 -E1 -E0"/>
    </vehicle>
    <vehicle id="5" depart="5.00">
        <route edges="-E15 -E14 E1"/>
    </vehicle>
    <vehicle id="6" depart="6.00">
        <route edges="-E1 E14 E4 E11 -E7 -E15 -E14"/>
    </vehicle>
    <vehicle id="7" depart="7.00">
        <route edges="E10"/>
    </vehicle>
    <vehicle id="8" depart="8.00">
        <route edges="-E15 E4 E11 E12"/>
    </vehicle>
    <vehicle id="9" depart="9.00">
        <route edges="E3 -E14 -E0"/>
    </vehicle>
    <vehicle id="10" depart="10.00">
        <route edges="E3 E15 E16"/>
    </vehicle>
    <vehicle id="11" depart="11.00">
        <route edges="-E4 E15 E7 -E11"/>
    </vehicle>
    <vehicle id="12" depart="12.00">
        <route edges="E7 -E11 -E4"/>
    </vehicle>
    <vehicle id="13" depart="13.00">
        <route edges="-E11 -E10"/>
    </vehicle>
    <vehicle id="14" depart="14.00">
        <route edges="E4 E11 E12"/>
    </vehicle>
    <vehicle id="15" depart="15.00">
        <route edges="E3 E15 E16"/>
    </vehicle>
    <vehicle id="16" depart="16.00">
        <route edges="E0 E1 E10 E11 E8"/>
    </vehicle>
    <vehicle id="17" depart="17.00">
        <route edges="-E5 E11"/>
    </vehicle>
    <vehicle id="18" depart="18.00">
        <route edges="E4 E11 E12"/>
    </vehicle>
    <vehicle id="19" depart="19.00">
        <route edges="E4 E11"/>
    </vehicle>
    <vehicle id="20" depart="20.00">
        <route edges="E13 E14 E4 -E10 -E1"/>
    </vehicle>
</routes>
